Version 4
SHEET 1 880 680
WIRE 336 -288 256 -288
WIRE 256 -256 256 -288
WIRE 336 -240 336 -288
WIRE 256 -144 256 -176
WIRE 256 -32 256 -64
WIRE -64 16 -112 16
WIRE 80 16 16 16
WIRE 192 16 160 16
WIRE -112 32 -112 16
WIRE 256 128 256 64
FLAG 256 128 0
FLAG -112 32 0
FLAG 336 -240 0
SYMBOL npn 192 -32 R0
SYMATTR InstName Q1
SYMBOL res 240 -160 R0
SYMATTR InstName R1
SYMATTR Value 200
SYMBOL res 64 32 R270
WINDOW 0 32 56 VTop 2
WINDOW 3 0 56 VBottom 2
SYMATTR InstName R2
SYMATTR Value 1k
SYMBOL voltage 32 16 R90
WINDOW 0 -32 56 VBottom 2
WINDOW 3 32 56 VTop 2
WINDOW 123 0 0 Left 0
WINDOW 39 0 0 Left 0
SYMATTR InstName V1
SYMATTR Value 5
SYMBOL voltage 256 -160 R180
WINDOW 0 24 96 Left 2
WINDOW 3 24 16 Left 2
WINDOW 123 0 0 Left 0
WINDOW 39 0 0 Left 0
SYMATTR InstName V2
SYMATTR Value 15
TEXT -128 152 Left 2 !.tran 0 1 0 0.1
