Version 4
SHEET 1 880 680
WIRE 432 -288 352 -288
WIRE 352 -256 352 -288
WIRE 432 -240 432 -288
WIRE 352 -144 352 -176
WIRE 352 -32 352 -64
WIRE 32 16 -16 16
WIRE 176 16 112 16
WIRE 288 16 256 16
WIRE -16 32 -16 16
WIRE 352 128 352 64
FLAG 352 128 0
FLAG -16 32 0
FLAG 432 -240 0
SYMBOL npn 288 -32 R0
SYMATTR InstName Q1
SYMATTR Value 2N5550
SYMBOL res 336 -160 R0
SYMATTR InstName R2
SYMATTR Value 1k
SYMBOL res 160 32 R270
WINDOW 0 32 56 VTop 2
WINDOW 3 0 56 VBottom 2
SYMATTR InstName R1
SYMATTR Value 40k
SYMBOL voltage 128 16 R90
WINDOW 0 -32 56 VBottom 2
WINDOW 3 32 56 VTop 2
WINDOW 123 0 0 Left 0
WINDOW 39 0 0 Left 0
SYMATTR InstName V1
SYMATTR Value 5
SYMBOL voltage 352 -160 R180
WINDOW 0 24 96 Left 2
WINDOW 3 24 16 Left 2
WINDOW 123 0 0 Left 0
WINDOW 39 0 0 Left 0
SYMATTR InstName V2
SYMATTR Value 12
TEXT -32 152 Left 2 !.tran 0 1 0 0.8
