Version 4
SHEET 1 880 680
WIRE 464 -208 384 -208
WIRE 384 -176 384 -208
WIRE 464 -160 464 -208
WIRE 384 -64 384 -96
WIRE 384 48 384 16
WIRE 64 96 16 96
WIRE 208 96 144 96
WIRE 320 96 288 96
WIRE 16 112 16 96
WIRE 384 208 384 144
FLAG 384 208 0
FLAG 16 112 0
FLAG 464 -160 0
SYMBOL npn 320 48 R0
SYMATTR InstName Q1
SYMBOL res 368 -80 R0
SYMATTR InstName R1
SYMATTR Value 10
SYMBOL res 192 112 R270
WINDOW 0 32 56 VTop 2
WINDOW 3 0 56 VBottom 2
SYMATTR InstName R2
SYMATTR Value 365
SYMBOL voltage 160 96 R90
WINDOW 0 -32 56 VBottom 2
WINDOW 3 32 56 VTop 2
WINDOW 123 0 0 Left 0
WINDOW 39 0 0 Left 0
SYMATTR InstName V1
SYMATTR Value 5
SYMBOL voltage 384 -80 R180
WINDOW 0 24 96 Left 2
WINDOW 3 24 16 Left 2
WINDOW 123 0 0 Left 0
WINDOW 39 0 0 Left 0
SYMATTR InstName V2
SYMATTR Value 12
TEXT 0 232 Left 2 !.tran 0 1 0 0.1
