Version 4
SHEET 1 880 680
WIRE 464 -144 384 -144
WIRE 384 -112 384 -144
WIRE 464 -96 464 -144
WIRE 384 0 384 -32
WIRE 384 112 384 80
WIRE 64 160 16 160
WIRE 208 160 144 160
WIRE 320 160 288 160
WIRE 16 176 16 160
WIRE 384 272 384 208
FLAG 384 272 0
FLAG 16 176 0
FLAG 464 -96 0
SYMBOL npn 320 112 R0
SYMATTR InstName Q1
SYMBOL res 368 -16 R0
SYMATTR InstName R1
SYMATTR Value 3k
SYMBOL res 192 176 R270
WINDOW 0 32 56 VTop 2
WINDOW 3 0 56 VBottom 2
SYMATTR InstName R2
SYMATTR Value 1k
SYMBOL voltage 160 160 R90
WINDOW 0 -32 56 VBottom 2
WINDOW 3 32 56 VTop 2
WINDOW 123 0 0 Left 0
WINDOW 39 0 0 Left 0
SYMATTR InstName V1
SYMATTR Value 5
SYMBOL voltage 384 -16 R180
WINDOW 0 24 96 Left 2
WINDOW 3 24 16 Left 2
WINDOW 123 0 0 Left 0
WINDOW 39 0 0 Left 0
SYMATTR InstName V2
SYMATTR Value 20
TEXT 0 296 Left 2 !.tran 0 1 0 0.1
