Version 4
SHEET 1 880 680
WIRE 336 -176 256 -176
WIRE 256 -144 256 -176
WIRE 336 -128 336 -176
WIRE 256 -32 256 -64
WIRE 80 16 -32 16
WIRE 192 16 160 16
WIRE -32 32 -32 16
WIRE 256 96 256 64
WIRE 256 240 256 176
FLAG 256 240 0
FLAG -32 32 0
FLAG 336 -128 0
SYMBOL res 240 80 R0
SYMATTR InstName R1
SYMATTR Value 18.75
SYMBOL res 64 32 R270
WINDOW 0 32 56 VTop 2
WINDOW 3 0 56 VBottom 2
SYMATTR InstName R2
SYMATTR Value 470
SYMBOL voltage 256 -48 R180
WINDOW 0 24 96 Left 2
WINDOW 3 24 16 Left 2
WINDOW 123 0 0 Left 0
WINDOW 39 0 0 Left 0
SYMATTR InstName V2
SYMATTR Value 17
SYMBOL pnp 192 64 M180
SYMATTR InstName Q1
TEXT -48 264 Left 2 !.tran 0 0.1 0 0.1
